
Version,
  9.1;                                    !- Version Identifier

Timestep,
  6;                                      !- Number of Timesteps per Hour

LifeCycleCost:Parameters,
  Life Cycle Cost Parameters,             !- Name
  EndOfYear,                              !- Discounting Convention
  ConstantDollar,                         !- Inflation Approach
  0.03,                                   !- Real Discount Rate
  ,                                       !- Nominal Discount Rate
  ,                                       !- Inflation
  ,                                       !- Base Date Month
  2011,                                   !- Base Date Year
  ,                                       !- Service Date Month
  2011,                                   !- Service Date Year
  25,                                     !- Length of Study Period in Years
  ,                                       !- Tax rate
  None;                                   !- Depreciation Method

LifeCycleCost:UsePriceEscalation,
  U.S. Avg  Commercial-Electricity,       !- LCC Price Escalation Name
  Electricity,                            !- Resource
  2011,                                   !- Escalation Start Year
  January,                                !- Escalation Start Month
  0.9838,                                 !- Year Escalation 1
  0.9730,                                 !- Year Escalation 2
  0.9632,                                 !- Year Escalation 3
  0.9611,                                 !- Year Escalation 4
  0.9571,                                 !- Year Escalation 5
  0.9553,                                 !- Year Escalation 6
  0.9539,                                 !- Year Escalation 7
  0.9521,                                 !- Year Escalation 8
  0.9546,                                 !- Year Escalation 9
  0.9550,                                 !- Year Escalation 10
  0.9553,                                 !- Year Escalation 11
  0.9564,                                 !- Year Escalation 12
  0.9575,                                 !- Year Escalation 13
  0.9596,                                 !- Year Escalation 14
  0.9618,                                 !- Year Escalation 15
  0.9614,                                 !- Year Escalation 16
  0.9618,                                 !- Year Escalation 17
  0.9618,                                 !- Year Escalation 18
  0.9593,                                 !- Year Escalation 19
  0.9589,                                 !- Year Escalation 20
  0.9607,                                 !- Year Escalation 21
  0.9625,                                 !- Year Escalation 22
  0.9650,                                 !- Year Escalation 23
  0.9708,                                 !- Year Escalation 24
  0.9751,                                 !- Year Escalation 25
  0.9762,                                 !- Year Escalation 26
  0.9766,                                 !- Year Escalation 27
  0.9766,                                 !- Year Escalation 28
  0.9769,                                 !- Year Escalation 29
  0.9773;                                 !- Year Escalation 30

LifeCycleCost:UsePriceEscalation,
  U.S. Avg  Commercial-Distillate Oil,    !- LCC Price Escalation Name
  FuelOil#1,                              !- Resource
  2011,                                   !- Escalation Start Year
  January,                                !- Escalation Start Month
  0.9714,                                 !- Year Escalation 1
  0.9730,                                 !- Year Escalation 2
  0.9942,                                 !- Year Escalation 3
  1.0164,                                 !- Year Escalation 4
  1.0541,                                 !- Year Escalation 5
  1.0928,                                 !- Year Escalation 6
  1.1267,                                 !- Year Escalation 7
  1.1580,                                 !- Year Escalation 8
  1.1792,                                 !- Year Escalation 9
  1.1967,                                 !- Year Escalation 10
  1.2200,                                 !- Year Escalation 11
  1.2333,                                 !- Year Escalation 12
  1.2566,                                 !- Year Escalation 13
  1.2709,                                 !- Year Escalation 14
  1.2826,                                 !- Year Escalation 15
  1.2985,                                 !- Year Escalation 16
  1.3102,                                 !- Year Escalation 17
  1.3250,                                 !- Year Escalation 18
  1.3261,                                 !- Year Escalation 19
  1.3282,                                 !- Year Escalation 20
  1.3324,                                 !- Year Escalation 21
  1.3356,                                 !- Year Escalation 22
  1.3431,                                 !- Year Escalation 23
  1.3510,                                 !- Year Escalation 24
  1.3568,                                 !- Year Escalation 25
  1.3606,                                 !- Year Escalation 26
  1.3637,                                 !- Year Escalation 27
  1.3674,                                 !- Year Escalation 28
  1.3706,                                 !- Year Escalation 29
  1.3743;                                 !- Year Escalation 30

LifeCycleCost:UsePriceEscalation,
  U.S. Avg  Commercial-Residual Oil,      !- LCC Price Escalation Name
  FuelOil#2,                              !- Resource
  2011,                                   !- Escalation Start Year
  January,                                !- Escalation Start Month
  0.8469,                                 !- Year Escalation 1
  0.8257,                                 !- Year Escalation 2
  0.8681,                                 !- Year Escalation 3
  0.8988,                                 !- Year Escalation 4
  0.9289,                                 !- Year Escalation 5
  0.9604,                                 !- Year Escalation 6
  0.9897,                                 !- Year Escalation 7
  1.0075,                                 !- Year Escalation 8
  1.0314,                                 !- Year Escalation 9
  1.0554,                                 !- Year Escalation 10
  1.0861,                                 !- Year Escalation 11
  1.1278,                                 !- Year Escalation 12
  1.1497,                                 !- Year Escalation 13
  1.1620,                                 !- Year Escalation 14
  1.1743,                                 !- Year Escalation 15
  1.1852,                                 !- Year Escalation 16
  1.1948,                                 !- Year Escalation 17
  1.2037,                                 !- Year Escalation 18
  1.2071,                                 !- Year Escalation 19
  1.2119,                                 !- Year Escalation 20
  1.2139,                                 !- Year Escalation 21
  1.2194,                                 !- Year Escalation 22
  1.2276,                                 !- Year Escalation 23
  1.2365,                                 !- Year Escalation 24
  1.2420,                                 !- Year Escalation 25
  1.2461,                                 !- Year Escalation 26
  1.2509,                                 !- Year Escalation 27
  1.2550,                                 !- Year Escalation 28
  1.2591,                                 !- Year Escalation 29
  1.2638;                                 !- Year Escalation 30

LifeCycleCost:UsePriceEscalation,
  U.S. Avg  Commercial-Natural gas,       !- LCC Price Escalation Name
  NaturalGas,                             !- Resource
  2011,                                   !- Escalation Start Year
  January,                                !- Escalation Start Month
  0.9823,                                 !- Year Escalation 1
  0.9557,                                 !- Year Escalation 2
  0.9279,                                 !- Year Escalation 3
  0.9257,                                 !- Year Escalation 4
  0.9346,                                 !- Year Escalation 5
  0.9412,                                 !- Year Escalation 6
  0.9512,                                 !- Year Escalation 7
  0.9645,                                 !- Year Escalation 8
  0.9856,                                 !- Year Escalation 9
  1.0067,                                 !- Year Escalation 10
  1.0222,                                 !- Year Escalation 11
  1.0410,                                 !- Year Escalation 12
  1.0610,                                 !- Year Escalation 13
  1.0787,                                 !- Year Escalation 14
  1.0942,                                 !- Year Escalation 15
  1.1098,                                 !- Year Escalation 16
  1.1220,                                 !- Year Escalation 17
  1.1308,                                 !- Year Escalation 18
  1.1386,                                 !- Year Escalation 19
  1.1486,                                 !- Year Escalation 20
  1.1619,                                 !- Year Escalation 21
  1.1763,                                 !- Year Escalation 22
  1.1918,                                 !- Year Escalation 23
  1.2118,                                 !- Year Escalation 24
  1.2284,                                 !- Year Escalation 25
  1.2439,                                 !- Year Escalation 26
  1.2605,                                 !- Year Escalation 27
  1.2772,                                 !- Year Escalation 28
  1.2938,                                 !- Year Escalation 29
  1.3115;                                 !- Year Escalation 30

LifeCycleCost:UsePriceEscalation,
  U.S. Avg  Commercial-Coal,              !- LCC Price Escalation Name
  Coal,                                   !- Resource
  2011,                                   !- Escalation Start Year
  January,                                !- Escalation Start Month
  0.9970,                                 !- Year Escalation 1
  1.0089,                                 !- Year Escalation 2
  1.0089,                                 !- Year Escalation 3
  0.9941,                                 !- Year Escalation 4
  0.9941,                                 !- Year Escalation 5
  1.0000,                                 !- Year Escalation 6
  1.0030,                                 !- Year Escalation 7
  1.0059,                                 !- Year Escalation 8
  1.0089,                                 !- Year Escalation 9
  1.0119,                                 !- Year Escalation 10
  1.0148,                                 !- Year Escalation 11
  1.0178,                                 !- Year Escalation 12
  1.0208,                                 !- Year Escalation 13
  1.0267,                                 !- Year Escalation 14
  1.0297,                                 !- Year Escalation 15
  1.0356,                                 !- Year Escalation 16
  1.0415,                                 !- Year Escalation 17
  1.0534,                                 !- Year Escalation 18
  1.0564,                                 !- Year Escalation 19
  1.0593,                                 !- Year Escalation 20
  1.0653,                                 !- Year Escalation 21
  1.0712,                                 !- Year Escalation 22
  1.0742,                                 !- Year Escalation 23
  1.0801,                                 !- Year Escalation 24
  1.0831,                                 !- Year Escalation 25
  1.0831,                                 !- Year Escalation 26
  1.0861,                                 !- Year Escalation 27
  1.0890,                                 !- Year Escalation 28
  1.0920,                                 !- Year Escalation 29
  1.0950;                                 !- Year Escalation 30

Building,
  Building 1,                             !- Name
  0,                                      !- North Axis {deg}
  City,                                   !- Terrain
  ,                                       !- Loads Convergence Tolerance Value
  ,                                       !- Temperature Convergence Tolerance Value {deltaC}
  FullExterior,                           !- Solar Distribution
  25,                                     !- Maximum Number of Warmup Days
  6;                                      !- Minimum Number of Warmup Days

Shading:Building:Detailed,
  shdSurface_0_0,                         !- Name
  ,                                       !- Transmittance Schedule Name
  ,                                       !- Number of Vertices
  1264.47692871094, -598.30517578125, 18.3299999237061, !- X,Y,Z Vertex 1 {m}
  1264.47692871094, -598.30517578125, 0,  !- X,Y,Z Vertex 2 {m}
  1261.41711425781, -573.459533691406, 0, !- X,Y,Z Vertex 3 {m}
  1261.41711425781, -573.459533691406, 18.3299999237061; !- X,Y,Z Vertex 4 {m}

Shading:Building:Detailed,
  shdSurface_100_0,                       !- Name
  ,                                       !- Transmittance Schedule Name
  ,                                       !- Number of Vertices
  1162.63171386719, -626.536071777344, 15.0900001525879, !- X,Y,Z Vertex 1 {m}
  1162.63171386719, -626.536071777344, 0, !- X,Y,Z Vertex 2 {m}
  1165.86218261719, -649.171936035156, 0, !- X,Y,Z Vertex 3 {m}
  1165.86218261719, -649.171936035156, 15.0900001525879; !- X,Y,Z Vertex 4 {m}

Shading:Building:Detailed,
  shdSurface_101_0,                       !- Name
  ,                                       !- Transmittance Schedule Name
  ,                                       !- Number of Vertices
  1242.56872558594, -726.416198730469, 21.3299999237061, !- X,Y,Z Vertex 1 {m}
  1242.56872558594, -726.416198730469, 0, !- X,Y,Z Vertex 2 {m}
  1244.12194824219, -750.388732910156, 0, !- X,Y,Z Vertex 3 {m}
  1244.12194824219, -750.388732910156, 21.3299999237061; !- X,Y,Z Vertex 4 {m}

Shading:Building:Detailed,
  shdSurface_102_0,                       !- Name
  ,                                       !- Transmittance Schedule Name
  ,                                       !- Number of Vertices
  1353.98559570313, -634.168640136719, 20.2999992370605, !- X,Y,Z Vertex 1 {m}
  1353.98559570313, -634.168640136719, 0, !- X,Y,Z Vertex 2 {m}
  1357.02026367188, -661.443359375, 0,    !- X,Y,Z Vertex 3 {m}
  1357.02026367188, -661.443359375, 20.2999992370605; !- X,Y,Z Vertex 4 {m}

Shading:Building:Detailed,
  shdSurface_103_0,                       !- Name
  ,                                       !- Transmittance Schedule Name
  ,                                       !- Number of Vertices
  1306.77380371094, -683.521667480469, 24.9500007629395, !- X,Y,Z Vertex 1 {m}
  1306.77380371094, -683.521667480469, 0, !- X,Y,Z Vertex 2 {m}
  1307.71862792969, -696.525390625, 0,    !- X,Y,Z Vertex 3 {m}
  1307.71862792969, -696.525390625, 24.9500007629395; !- X,Y,Z Vertex 4 {m}

Shading:Building:Detailed,
  shdSurface_104_0,                       !- Name
  ,                                       !- Transmittance Schedule Name
  ,                                       !- Number of Vertices
  1266.67651367188, -748.924499511719, 21.3299999237061, !- X,Y,Z Vertex 1 {m}
  1266.67651367188, -748.924499511719, 0, !- X,Y,Z Vertex 2 {m}
  1265.11401367188, -724.963195800781, 0, !- X,Y,Z Vertex 3 {m}
  1265.11401367188, -724.963195800781, 21.3299999237061; !- X,Y,Z Vertex 4 {m}

Shading:Building:Detailed,
  shdSurface_105_0,                       !- Name
  ,                                       !- Transmittance Schedule Name
  ,                                       !- Number of Vertices
  1374.19738769531, -675.528198242188, 20.2900009155273, !- X,Y,Z Vertex 1 {m}
  1374.19738769531, -675.528198242188, 0, !- X,Y,Z Vertex 2 {m}
  1379.31530761719, -720.622741699219, 0, !- X,Y,Z Vertex 3 {m}
  1379.31530761719, -720.622741699219, 20.2900009155273; !- X,Y,Z Vertex 4 {m}

Shading:Building:Detailed,
  shdSurface_106_0,                       !- Name
  ,                                       !- Transmittance Schedule Name
  ,                                       !- Number of Vertices
  1289.65466308594, -702.239624023438, 23.3199996948242, !- X,Y,Z Vertex 1 {m}
  1289.65466308594, -702.239624023438, 0, !- X,Y,Z Vertex 2 {m}
  1303.07080078125, -700.939331054688, 0, !- X,Y,Z Vertex 3 {m}
  1303.07080078125, -700.939331054688, 23.3199996948242; !- X,Y,Z Vertex 4 {m}

Shading:Building:Detailed,
  shdSurface_107_0,                       !- Name
  ,                                       !- Transmittance Schedule Name
  ,                                       !- Number of Vertices
  1290.94616699219, -714.516723632813, 25.9400005340576, !- X,Y,Z Vertex 1 {m}
  1290.94616699219, -714.516723632813, 0, !- X,Y,Z Vertex 2 {m}
  1292.33154296875, -731.838073730469, 0, !- X,Y,Z Vertex 3 {m}
  1292.33154296875, -731.838073730469, 25.9400005340576; !- X,Y,Z Vertex 4 {m}

Shading:Building:Detailed,
  shdSurface_108_0,                       !- Name
  ,                                       !- Transmittance Schedule Name
  ,                                       !- Number of Vertices
  1305.89501953125, -631.591369628906, 13.8699998855591, !- X,Y,Z Vertex 1 {m}
  1305.89501953125, -631.591369628906, 0, !- X,Y,Z Vertex 2 {m}
  1319.87377929688, -630.059814453125, 0, !- X,Y,Z Vertex 3 {m}
  1319.87377929688, -630.059814453125, 13.8699998855591; !- X,Y,Z Vertex 4 {m}

Shading:Building:Detailed,
  shdSurface_109_0,                       !- Name
  ,                                       !- Transmittance Schedule Name
  ,                                       !- Number of Vertices
  1292.99645996094, -524.457092285156, 22.1299991607666, !- X,Y,Z Vertex 1 {m}
  1292.99645996094, -524.457092285156, 0, !- X,Y,Z Vertex 2 {m}
  1270.03759765625, -525.994750976563, 0, !- X,Y,Z Vertex 3 {m}
  1270.03759765625, -525.994750976563, 22.1299991607666; !- X,Y,Z Vertex 4 {m}

Shading:Building:Detailed,
  shdSurface_10_0,                        !- Name
  ,                                       !- Transmittance Schedule Name
  ,                                       !- Number of Vertices
  1214.93920898438, -618.707702636719, 25.7999992370605, !- X,Y,Z Vertex 1 {m}
  1214.93920898438, -618.707702636719, 0, !- X,Y,Z Vertex 2 {m}
  1217.31286621094, -642.622131347656, 0, !- X,Y,Z Vertex 3 {m}
  1217.31286621094, -642.622131347656, 25.7999992370605; !- X,Y,Z Vertex 4 {m}

Shading:Building:Detailed,
  shdSurface_110_0,                       !- Name
  ,                                       !- Transmittance Schedule Name
  ,                                       !- Number of Vertices
  1317.35144042969, -607.434326171875, 13.8699998855591, !- X,Y,Z Vertex 1 {m}
  1317.35144042969, -607.434326171875, 0, !- X,Y,Z Vertex 2 {m}
  1303.38232421875, -608.976745605469, 0, !- X,Y,Z Vertex 3 {m}
  1303.38232421875, -608.976745605469, 13.8699998855591; !- X,Y,Z Vertex 4 {m}

Shading:Building:Detailed,
  shdSurface_111_0,                       !- Name
  ,                                       !- Transmittance Schedule Name
  ,                                       !- Number of Vertices
  1269.4296875, -522.966247558594, 22.4400005340576, !- X,Y,Z Vertex 1 {m}
  1269.4296875, -522.966247558594, 0,     !- X,Y,Z Vertex 2 {m}
  1291.79553222656, -520.972778320313, 0, !- X,Y,Z Vertex 3 {m}
  1291.79553222656, -520.972778320313, 22.4400005340576; !- X,Y,Z Vertex 4 {m}

Shading:Building:Detailed,
  shdSurface_112_0,                       !- Name
  ,                                       !- Transmittance Schedule Name
  ,                                       !- Number of Vertices
  1272.71948242188, -542.362854003906, 25.7399997711182, !- X,Y,Z Vertex 1 {m}
  1272.71948242188, -542.362854003906, 0, !- X,Y,Z Vertex 2 {m}
  1273.81298828125, -553.534301757813, 0, !- X,Y,Z Vertex 3 {m}
  1273.81298828125, -553.534301757813, 25.7399997711182; !- X,Y,Z Vertex 4 {m}

Shading:Building:Detailed,
  shdSurface_113_0,                       !- Name
  ,                                       !- Transmittance Schedule Name
  ,                                       !- Number of Vertices
  1144.48059082031, -566.610473632813, 23.8899993896484, !- X,Y,Z Vertex 1 {m}
  1144.48059082031, -566.610473632813, 0, !- X,Y,Z Vertex 2 {m}
  1169.04956054688, -564.780090332031, 0, !- X,Y,Z Vertex 3 {m}
  1169.04956054688, -564.780090332031, 23.8899993896484; !- X,Y,Z Vertex 4 {m}

Shading:Building:Detailed,
  shdSurface_114_0,                       !- Name
  ,                                       !- Transmittance Schedule Name
  ,                                       !- Number of Vertices
  1168.21081542969, -553.593322753906, 23.8899993896484, !- X,Y,Z Vertex 1 {m}
  1168.21081542969, -553.593322753906, 0, !- X,Y,Z Vertex 2 {m}
  1143.64196777344, -555.423767089844, 0, !- X,Y,Z Vertex 3 {m}
  1143.64196777344, -555.423767089844, 23.8899993896484; !- X,Y,Z Vertex 4 {m}

Shading:Building:Detailed,
  shdSurface_115_0,                       !- Name
  ,                                       !- Transmittance Schedule Name
  ,                                       !- Number of Vertices
  1142.42541503906, -546.483459472656, 24.1000003814697, !- X,Y,Z Vertex 1 {m}
  1142.42541503906, -546.483459472656, 0, !- X,Y,Z Vertex 2 {m}
  1169.076171875, -543.220886230469, 0,   !- X,Y,Z Vertex 3 {m}
  1169.076171875, -543.220886230469, 24.1000003814697; !- X,Y,Z Vertex 4 {m}

Shading:Building:Detailed,
  shdSurface_116_0,                       !- Name
  ,                                       !- Transmittance Schedule Name
  ,                                       !- Number of Vertices
  1149.333984375, -598.767639160156, 18.2000007629395, !- X,Y,Z Vertex 1 {m}
  1149.333984375, -598.767639160156, 0,   !- X,Y,Z Vertex 2 {m}
  1172.47082519531, -596.561889648438, 0, !- X,Y,Z Vertex 3 {m}
  1172.47082519531, -596.561889648438, 18.2000007629395; !- X,Y,Z Vertex 4 {m}

Shading:Building:Detailed,
  shdSurface_117_0,                       !- Name
  ,                                       !- Transmittance Schedule Name
  ,                                       !- Number of Vertices
  1171.14331054688, -582.6884765625, 18.2000007629395, !- X,Y,Z Vertex 1 {m}
  1171.14331054688, -582.6884765625, 0,   !- X,Y,Z Vertex 2 {m}
  1147.9970703125, -584.894348144531, 0,  !- X,Y,Z Vertex 3 {m}
  1147.9970703125, -584.894348144531, 18.2000007629395; !- X,Y,Z Vertex 4 {m}

Shading:Building:Detailed,
  shdSurface_118_0,                       !- Name
  ,                                       !- Transmittance Schedule Name
  ,                                       !- Number of Vertices
  1173.04455566406, -599.247131347656, 16.0100002288818, !- X,Y,Z Vertex 1 {m}
  1173.04455566406, -599.247131347656, 0, !- X,Y,Z Vertex 2 {m}
  1150.10266113281, -601.25, 0,           !- X,Y,Z Vertex 3 {m}
  1150.10266113281, -601.25, 16.0100002288818; !- X,Y,Z Vertex 4 {m}

Shading:Building:Detailed,
  shdSurface_119_0,                       !- Name
  ,                                       !- Transmittance Schedule Name
  ,                                       !- Number of Vertices
  1151.08251953125, -612.412170410156, 16.0100002288818, !- X,Y,Z Vertex 1 {m}
  1151.08251953125, -612.412170410156, 0, !- X,Y,Z Vertex 2 {m}
  1174.0244140625, -610.409362792969, 0,  !- X,Y,Z Vertex 3 {m}
  1174.0244140625, -610.409362792969, 16.0100002288818; !- X,Y,Z Vertex 4 {m}

Shading:Building:Detailed,
  shdSurface_11_0,                        !- Name
  ,                                       !- Transmittance Schedule Name
  ,                                       !- Number of Vertices
  1288.27697753906, -609.773010253906, 26.1700000762939, !- X,Y,Z Vertex 1 {m}
  1288.27697753906, -609.773010253906, 0, !- X,Y,Z Vertex 2 {m}
  1274.46716308594, -610.669555664063, 0, !- X,Y,Z Vertex 3 {m}
  1274.46716308594, -610.669555664063, 26.1700000762939; !- X,Y,Z Vertex 4 {m}

Shading:Building:Detailed,
  shdSurface_12_0,                        !- Name
  ,                                       !- Transmittance Schedule Name
  ,                                       !- Number of Vertices
  1289.96887207031, -635.817016601563, 26.1700000762939, !- X,Y,Z Vertex 1 {m}
  1289.96887207031, -635.817016601563, 0, !- X,Y,Z Vertex 2 {m}
  1288.27697753906, -609.773010253906, 0, !- X,Y,Z Vertex 3 {m}
  1288.27697753906, -609.773010253906, 26.1700000762939; !- X,Y,Z Vertex 4 {m}

Shading:Building:Detailed,
  shdSurface_13_0,                        !- Name
  ,                                       !- Transmittance Schedule Name
  ,                                       !- Number of Vertices
  1276.15893554688, -636.713562011719, 26.1700000762939, !- X,Y,Z Vertex 1 {m}
  1276.15893554688, -636.713562011719, 0, !- X,Y,Z Vertex 2 {m}
  1289.96887207031, -635.817016601563, 0, !- X,Y,Z Vertex 3 {m}
  1289.96887207031, -635.817016601563, 26.1700000762939; !- X,Y,Z Vertex 4 {m}

Shading:Building:Detailed,
  shdSurface_14_0,                        !- Name
  ,                                       !- Transmittance Schedule Name
  ,                                       !- Number of Vertices
  1274.46716308594, -610.669555664063, 26.1700000762939, !- X,Y,Z Vertex 1 {m}
  1274.46716308594, -610.669555664063, 0, !- X,Y,Z Vertex 2 {m}
  1276.15893554688, -636.713562011719, 0, !- X,Y,Z Vertex 3 {m}
  1276.15893554688, -636.713562011719, 26.1700000762939; !- X,Y,Z Vertex 4 {m}

Shading:Building:Detailed,
  shdSurface_15_0,                        !- Name
  ,                                       !- Transmittance Schedule Name
  ,                                       !- Number of Vertices
  1302.20495605469, -632.850830078125, 21.1599998474121, !- X,Y,Z Vertex 1 {m}
  1302.20495605469, -632.850830078125, 0, !- X,Y,Z Vertex 2 {m}
  1299.68371582031, -610.857421875, 0,    !- X,Y,Z Vertex 3 {m}
  1299.68371582031, -610.857421875, 21.1599998474121; !- X,Y,Z Vertex 4 {m}

Shading:Building:Detailed,
  shdSurface_16_0,                        !- Name
  ,                                       !- Transmittance Schedule Name
  ,                                       !- Number of Vertices
  1305.20739746094, -644.666748046875, 21.4400005340576, !- X,Y,Z Vertex 1 {m}
  1305.20739746094, -644.666748046875, 0, !- X,Y,Z Vertex 2 {m}
  1306.82385253906, -667.895202636719, 0, !- X,Y,Z Vertex 3 {m}
  1306.82385253906, -667.895202636719, 21.4400005340576; !- X,Y,Z Vertex 4 {m}

Shading:Building:Detailed,
  shdSurface_17_0,                        !- Name
  ,                                       !- Transmittance Schedule Name
  ,                                       !- Number of Vertices
  1300.68310546875, -668.308471679688, 25.8799991607666, !- X,Y,Z Vertex 1 {m}
  1300.68310546875, -668.308471679688, 0, !- X,Y,Z Vertex 2 {m}
  1299.35339355469, -644.15478515625, 0,  !- X,Y,Z Vertex 3 {m}
  1299.35339355469, -644.15478515625, 25.8799991607666; !- X,Y,Z Vertex 4 {m}

Shading:Building:Detailed,
  shdSurface_18_0,                        !- Name
  ,                                       !- Transmittance Schedule Name
  ,                                       !- Number of Vertices
  1284.59765625, -644.401794433594, 25.8799991607666, !- X,Y,Z Vertex 1 {m}
  1284.59765625, -644.401794433594, 0,    !- X,Y,Z Vertex 2 {m}
  1286.541015625, -668.545227050781, 0,   !- X,Y,Z Vertex 3 {m}
  1286.541015625, -668.545227050781, 25.8799991607666; !- X,Y,Z Vertex 4 {m}

Shading:Building:Detailed,
  shdSurface_19_0,                        !- Name
  ,                                       !- Transmittance Schedule Name
  ,                                       !- Number of Vertices
  1195.41674804688, -672.143798828125, 22.7000007629395, !- X,Y,Z Vertex 1 {m}
  1195.41674804688, -672.143798828125, 0, !- X,Y,Z Vertex 2 {m}
  1244.30053710938, -671.325927734375, 0, !- X,Y,Z Vertex 3 {m}
  1244.30053710938, -671.325927734375, 22.7000007629395; !- X,Y,Z Vertex 4 {m}

Shading:Building:Detailed,
  shdSurface_1_0,                         !- Name
  ,                                       !- Transmittance Schedule Name
  ,                                       !- Number of Vertices
  1250.68322753906, -574.770385742188, 18.3299999237061, !- X,Y,Z Vertex 1 {m}
  1250.68322753906, -574.770385742188, 0, !- X,Y,Z Vertex 2 {m}
  1253.74304199219, -599.615966796875, 0, !- X,Y,Z Vertex 3 {m}
  1253.74304199219, -599.615966796875, 18.3299999237061; !- X,Y,Z Vertex 4 {m}

Shading:Building:Detailed,
  shdSurface_20_0,                        !- Name
  ,                                       !- Transmittance Schedule Name
  ,                                       !- Number of Vertices
  1181.74365234375, -750.101501464844, 19.4200000762939, !- X,Y,Z Vertex 1 {m}
  1181.74365234375, -750.101501464844, 0, !- X,Y,Z Vertex 2 {m}
  1174.60974121094, -683.792419433594, 0, !- X,Y,Z Vertex 3 {m}
  1174.60974121094, -683.792419433594, 19.4200000762939; !- X,Y,Z Vertex 4 {m}

Shading:Building:Detailed,
  shdSurface_21_0,                        !- Name
  ,                                       !- Transmittance Schedule Name
  ,                                       !- Number of Vertices
  1261.41711425781, -573.459533691406, 18.3299999237061, !- X,Y,Z Vertex 1 {m}
  1261.41711425781, -573.459533691406, 0, !- X,Y,Z Vertex 2 {m}
  1250.68322753906, -574.770385742188, 0, !- X,Y,Z Vertex 3 {m}
  1250.68322753906, -574.770385742188, 18.3299999237061; !- X,Y,Z Vertex 4 {m}

Shading:Building:Detailed,
  shdSurface_22_0,                        !- Name
  ,                                       !- Transmittance Schedule Name
  ,                                       !- Number of Vertices
  1253.74304199219, -599.615966796875, 18.3299999237061, !- X,Y,Z Vertex 1 {m}
  1253.74304199219, -599.615966796875, 0, !- X,Y,Z Vertex 2 {m}